data/nesta_case24_ieee_rts__sad.m
%%%%%%%%%%%%%%%%%%%%%%%%%%%%%%%%%%%%%%%%%%%%%%%%%%%%%%%%%%%%%%%%%%%%%%%%%%%
%%%%                                                                  %%%%%
%%%%      NICTA Energy System Test Case Archive (NESTA) - v0.6.0      %%%%%
%%%%           Optimal Power Flow - Small Angle Difference            %%%%%
%%%%                       02 - January - 2016                        %%%%%
%%%%                                                                  %%%%%
%%%%%%%%%%%%%%%%%%%%%%%%%%%%%%%%%%%%%%%%%%%%%%%%%%%%%%%%%%%%%%%%%%%%%%%%%%%
function mpc = nesta_case24_ieee_rts__sad
mpc.version = '2';
mpc.baseMVA = 100.0;

%% area data
%	area	refbus
mpc.areas = [
	1	 1;
	2	 3;
	3	 8;
	4	 6;
];

%% bus data
%	bus_i	type	Pd	Qd	Gs	Bs	area	Vm	Va	baseKV	zone	Vmax	Vmin
mpc.bus = [
	1	 2	 108.0	 22.0	 0.0	 0.0	 1	    1.03116	   -7.74931	 138.0	 1	    1.05000	    0.95000;
	2	 2	 97.0	 20.0	 0.0	 0.0	 1	    1.02794	   -7.72341	 138.0	 1	    1.05000	    0.95000;
	3	 1	 180.0	 37.0	 0.0	 0.0	 1	    1.01395	   -9.95875	 138.0	 1	    1.05000	    0.95000;
	4	 1	 74.0	 15.0	 0.0	 0.0	 1	    1.00903	  -10.81131	 138.0	 1	    1.05000	    0.95000;
	5	 1	 71.0	 14.0	 0.0	 0.0	 1	    1.02711	  -10.74273	 138.0	 1	    1.05000	    0.95000;
	6	 1	 136.0	 28.0	 0.0	 -100.0	 2	    1.02760	  -13.28597	 138.0	 1	    1.05000	    0.95000;
	7	 2	 125.0	 25.0	 0.0	 0.0	 2	    1.02956	   -3.59164	 138.0	 1	    1.05000	    0.95000;
	8	 1	 171.0	 35.0	 0.0	 0.0	 2	    1.00427	   -9.50027	 138.0	 1	    1.05000	    0.95000;
	9	 1	 175.0	 36.0	 0.0	 0.0	 1	    1.02698	   -9.27195	 138.0	 1	    1.05000	    0.95000;
	10	 1	 195.0	 40.0	 0.0	 0.0	 2	    1.05000	  -10.62235	 138.0	 1	    1.05000	    0.95000;
	11	 1	 0.0	 0.0	 0.0	 0.0	 3	    1.03273	   -4.64818	 230.0	 1	    1.05000	    0.95000;
	12	 1	 0.0	 0.0	 0.0	 0.0	 3	    1.02695	   -3.52232	 230.0	 1	    1.05000	    0.95000;
	13	 3	 265.0	 54.0	 0.0	 0.0	 3	    1.05000	    0.00000	 230.0	 1	    1.05000	    0.95000;
	14	 2	 194.0	 39.0	 0.0	 0.0	 3	    1.05000	   -3.71689	 230.0	 1	    1.05000	    0.95000;
	15	 2	 317.0	 64.0	 0.0	 0.0	 4	    1.04479	    1.17525	 230.0	 1	    1.05000	    0.95000;
	16	 2	 100.0	 20.0	 0.0	 0.0	 4	    1.04951	    1.27626	 230.0	 1	    1.05000	    0.95000;
	17	 1	 0.0	 0.0	 0.0	 0.0	 4	    1.04984	    4.77096	 230.0	 1	    1.05000	    0.95000;
	18	 2	 333.0	 68.0	 0.0	 0.0	 4	    1.05000	    5.75937	 230.0	 1	    1.05000	    0.95000;
	19	 1	 181.0	 37.0	 0.0	 0.0	 3	    1.04185	    0.70319	 230.0	 1	    1.05000	    0.95000;
	20	 1	 128.0	 26.0	 0.0	 0.0	 3	    1.04489	    2.06190	 230.0	 1	    1.05000	    0.95000;
	21	 2	 0.0	 0.0	 0.0	 0.0	 4	    1.05000	    6.19253	 230.0	 1	    1.05000	    0.95000;
	22	 2	 0.0	 0.0	 0.0	 0.0	 4	    1.05000	   11.87100	 230.0	 1	    1.05000	    0.95000;
	23	 2	 0.0	 0.0	 0.0	 0.0	 3	    1.05000	    3.51051	 230.0	 1	    1.05000	    0.95000;
	24	 1	 0.0	 0.0	 0.0	 0.0	 4	    1.01424	   -2.85872	 230.0	 1	    1.05000	    0.95000;
];

%% generator data
%	bus	Pg	Qg	Qmax	Qmin	Vg	mBase	status	Pmax	Pmin	Pc1	Pc2	Qc1min	Qc1max	Qc2min	Qc2max	ramp_agc	ramp_10	ramp_30	ramp_q	apf
mpc.gen = [
	1	 20.0	 4.934	 10.0	 0.0	 1.03116	 100.0	 1	 20.0	 16.0	 0.0	 0.0	 0.0	 0.0	 0.0	 0.0	 0.0	 0.0	 0.0	 0.0	 0.0;
	1	 20.0	 4.934	 10.0	 0.0	 1.03116	 100.0	 1	 20.0	 16.0	 0.0	 0.0	 0.0	 0.0	 0.0	 0.0	 0.0	 0.0	 0.0	 0.0	 0.0;
	1	 76.0	 0.571	 30.0	 -25.0	 1.03116	 100.0	 1	 76.0	 15.2	 0.0	 0.0	 0.0	 0.0	 0.0	 0.0	 0.0	 0.0	 0.0	 0.0	 0.0;
	1	 76.0	 0.571	 30.0	 -25.0	 1.03116	 100.0	 1	 76.0	 15.2	 0.0	 0.0	 0.0	 0.0	 0.0	 0.0	 0.0	 0.0	 0.0	 0.0	 0.0;
	2	 20.0	 2.222	 10.0	 0.0	 1.02794	 100.0	 1	 20.0	 16.0	 0.0	 0.0	 0.0	 0.0	 0.0	 0.0	 0.0	 0.0	 0.0	 0.0	 0.0;
	2	 20.0	 2.222	 10.0	 0.0	 1.02794	 100.0	 1	 20.0	 16.0	 0.0	 0.0	 0.0	 0.0	 0.0	 0.0	 0.0	 0.0	 0.0	 0.0	 0.0;
	2	 76.0	 -21.307	 30.0	 -25.0	 1.02794	 100.0	 1	 76.0	 15.2	 0.0	 0.0	 0.0	 0.0	 0.0	 0.0	 0.0	 0.0	 0.0	 0.0	 0.0;
	2	 76.0	 -21.307	 30.0	 -25.0	 1.02794	 100.0	 1	 76.0	 15.2	 0.0	 0.0	 0.0	 0.0	 0.0	 0.0	 0.0	 0.0	 0.0	 0.0	 0.0;
	7	 99.974	 10.062	 60.0	 0.0	 1.02956	 100.0	 1	 100.0	 25.0	 0.0	 0.0	 0.0	 0.0	 0.0	 0.0	 0.0	 0.0	 0.0	 0.0	 0.0;
	7	 99.974	 10.062	 60.0	 0.0	 1.02956	 100.0	 1	 100.0	 25.0	 0.0	 0.0	 0.0	 0.0	 0.0	 0.0	 0.0	 0.0	 0.0	 0.0	 0.0;
	7	 99.974	 10.062	 60.0	 0.0	 1.02956	 100.0	 1	 100.0	 25.0	 0.0	 0.0	 0.0	 0.0	 0.0	 0.0	 0.0	 0.0	 0.0	 0.0	 0.0;
	13	 173.258	 34.475	 80.0	 0.0	 1.05	 100.0	 1	 197.0	 69.0	 0.0	 0.0	 0.0	 0.0	 0.0	 0.0	 0.0	 0.0	 0.0	 0.0	 0.0;
	13	 173.258	 34.475	 80.0	 0.0	 1.05	 100.0	 1	 197.0	 69.0	 0.0	 0.0	 0.0	 0.0	 0.0	 0.0	 0.0	 0.0	 0.0	 0.0	 0.0;
	13	 173.258	 34.475	 80.0	 0.0	 1.05	 100.0	 1	 197.0	 69.0	 0.0	 0.0	 0.0	 0.0	 0.0	 0.0	 0.0	 0.0	 0.0	 0.0	 0.0;
	14	 0.0	 110.354	 200.0	 -50.0	 1.05	 100.0	 1	 0.0	 0.0	 0.0	 0.0	 0.0	 0.0	 0.0	 0.0	 0.0	 0.0	 0.0	 0.0	 0.0;
	15	 2.4	 6.0	 6.0	 0.0	 1.04479	 100.0	 1	 12.0	 2.4	 0.0	 0.0	 0.0	 0.0	 0.0	 0.0	 0.0	 0.0	 0.0	 0.0	 0.0;
	15	 2.4	 6.0	 6.0	 0.0	 1.04479	 100.0	 1	 12.0	 2.4	 0.0	 0.0	 0.0	 0.0	 0.0	 0.0	 0.0	 0.0	 0.0	 0.0	 0.0;
	15	 2.4	 6.0	 6.0	 0.0	 1.04479	 100.0	 1	 12.0	 2.4	 0.0	 0.0	 0.0	 0.0	 0.0	 0.0	 0.0	 0.0	 0.0	 0.0	 0.0;
	15	 2.4	 6.0	 6.0	 0.0	 1.04479	 100.0	 1	 12.0	 2.4	 0.0	 0.0	 0.0	 0.0	 0.0	 0.0	 0.0	 0.0	 0.0	 0.0	 0.0;
	15	 2.4	 6.0	 6.0	 0.0	 1.04479	 100.0	 1	 12.0	 2.4	 0.0	 0.0	 0.0	 0.0	 0.0	 0.0	 0.0	 0.0	 0.0	 0.0	 0.0;
	15	 54.3	 80.0	 80.0	 -50.0	 1.04479	 100.0	 1	 155.0	 54.3	 0.0	 0.0	 0.0	 0.0	 0.0	 0.0	 0.0	 0.0	 0.0	 0.0	 0.0;
	16	 155.0	 80.0	 80.0	 -50.0	 1.04951	 100.0	 1	 155.0	 54.3	 0.0	 0.0	 0.0	 0.0	 0.0	 0.0	 0.0	 0.0	 0.0	 0.0	 0.0;
	18	 400.0	 54.665	 200.0	 -50.0	 1.05	 100.0	 1	 400.0	 100.0	 0.0	 0.0	 0.0	 0.0	 0.0	 0.0	 0.0	 0.0	 0.0	 0.0	 0.0;
	21	 296.31	 -15.579	 200.0	 -50.0	 1.05	 100.0	 1	 400.0	 100.0	 0.0	 0.0	 0.0	 0.0	 0.0	 0.0	 0.0	 0.0	 0.0	 0.0	 0.0;
	22	 47.938	 -6.795	 16.0	 -10.0	 1.05	 100.0	 1	 50.0	 10.0	 0.0	 0.0	 0.0	 0.0	 0.0	 0.0	 0.0	 0.0	 0.0	 0.0	 0.0;
	22	 47.938	 -6.795	 16.0	 -10.0	 1.05	 100.0	 1	 50.0	 10.0	 0.0	 0.0	 0.0	 0.0	 0.0	 0.0	 0.0	 0.0	 0.0	 0.0	 0.0;
	22	 47.938	 -6.795	 16.0	 -10.0	 1.05	 100.0	 1	 50.0	 10.0	 0.0	 0.0	 0.0	 0.0	 0.0	 0.0	 0.0	 0.0	 0.0	 0.0	 0.0;
	22	 47.938	 -6.795	 16.0	 -10.0	 1.05	 100.0	 1	 50.0	 10.0	 0.0	 0.0	 0.0	 0.0	 0.0	 0.0	 0.0	 0.0	 0.0	 0.0	 0.0;
	22	 47.938	 -6.795	 16.0	 -10.0	 1.05	 100.0	 1	 50.0	 10.0	 0.0	 0.0	 0.0	 0.0	 0.0	 0.0	 0.0	 0.0	 0.0	 0.0	 0.0;
	22	 47.938	 -6.795	 16.0	 -10.0	 1.05	 100.0	 1	 50.0	 10.0	 0.0	 0.0	 0.0	 0.0	 0.0	 0.0	 0.0	 0.0	 0.0	 0.0	 0.0;
	23	 113.399	 -9.984	 80.0	 -50.0	 1.05	 100.0	 1	 155.0	 54.3	 0.0	 0.0	 0.0	 0.0	 0.0	 0.0	 0.0	 0.0	 0.0	 0.0	 0.0;
	23	 113.399	 -9.984	 80.0	 -50.0	 1.05	 100.0	 1	 155.0	 54.3	 0.0	 0.0	 0.0	 0.0	 0.0	 0.0	 0.0	 0.0	 0.0	 0.0	 0.0;
	23	 248.289	 21.208	 150.0	 -25.0	 1.05	 100.0	 1	 350.0	 140.0	 0.0	 0.0	 0.0	 0.0	 0.0	 0.0	 0.0	 0.0	 0.0	 0.0	 0.0;
];

%% generator cost data
%	2	startup	shutdown	n	c(n-1)	...	c0
mpc.gencost = [
	2	 1500.0	 0.0	 3	   0.000000	 130.000000	 400.684900;
	2	 1500.0	 0.0	 3	   0.000000	 130.000000	 400.684900;
	2	 1500.0	 0.0	 3	   0.014142	  16.081100	 212.307600;
	2	 1500.0	 0.0	 3	   0.014142	  16.081100	 212.307600;
	2	 1500.0	 0.0	 3	   0.000000	 130.000000	 400.684900;
	2	 1500.0	 0.0	 3	   0.000000	 130.000000	 400.684900;
	2	 1500.0	 0.0	 3	   0.014142	  16.081100	 212.307600;
	2	 1500.0	 0.0	 3	   0.014142	  16.081100	 212.307600;
	2	 1500.0	 0.0	 3	   0.052672	  43.661500	 781.521000;
	2	 1500.0	 0.0	 3	   0.052672	  43.661500	 781.521000;
	2	 1500.0	 0.0	 3	   0.052672	  43.661500	 781.521000;
	2	 1500.0	 0.0	 3	   0.007170	  48.580400	 832.757500;
	2	 1500.0	 0.0	 3	   0.007170	  48.580400	 832.757500;
	2	 1500.0	 0.0	 3	   0.007170	  48.580400	 832.757500;
	2	 1500.0	 0.0	 3	   0.000000	   0.000000	   0.000000;
	2	 1500.0	 0.0	 3	   0.328412	  56.564000	  86.385200;
	2	 1500.0	 0.0	 3	   0.328412	  56.564000	  86.385200;
	2	 1500.0	 0.0	 3	   0.328412	  56.564000	  86.385200;
	2	 1500.0	 0.0	 3	   0.328412	  56.564000	  86.385200;
	2	 1500.0	 0.0	 3	   0.328412	  56.564000	  86.385200;
	2	 1500.0	 0.0	 3	   0.008342	  12.388300	 382.239100;
	2	 1500.0	 0.0	 3	   0.008342	  12.388300	 382.239100;
	2	 1500.0	 0.0	 3	   0.000213	   4.423100	 395.374900;
	2	 1500.0	 0.0	 3	   0.000213	   4.423100	 395.374900;
	2	 1500.0	 0.0	 3	   0.000000	   0.001000	   0.001000;
	2	 1500.0	 0.0	 3	   0.000000	   0.001000	   0.001000;
	2	 1500.0	 0.0	 3	   0.000000	   0.001000	   0.001000;
	2	 1500.0	 0.0	 3	   0.000000	   0.001000	   0.001000;
	2	 1500.0	 0.0	 3	   0.000000	   0.001000	   0.001000;
	2	 1500.0	 0.0	 3	   0.000000	   0.001000	   0.001000;
	2	 1500.0	 0.0	 3	   0.008342	  12.388300	 382.239100;
	2	 1500.0	 0.0	 3	   0.008342	  12.388300	 382.239100;
	2	 1500.0	 0.0	 3	   0.004895	  11.849500	 665.109400;
];

%% branch data
%	fbus	tbus	r	x	b	rateA	rateB	rateC	ratio	angle	status	angmin	angmax
mpc.branch = [
	1	 2	 0.0026	 0.0139	 0.4611	 175.0	 193.0	 200.0	 0.0	 0.0	 1	 -7.100016	 7.100016;
	1	 3	 0.0546	 0.2112	 0.0572	 175.0	 208.0	 220.0	 0.0	 0.0	 1	 -7.100016	 7.100016;
	1	 5	 0.0218	 0.0845	 0.0229	 175.0	 208.0	 220.0	 0.0	 0.0	 1	 -7.100016	 7.100016;
	2	 4	 0.0328	 0.1267	 0.0343	 175.0	 208.0	 220.0	 0.0	 0.0	 1	 -7.100016	 7.100016;
	2	 6	 0.0497	 0.192	 0.052	 175.0	 208.0	 220.0	 0.0	 0.0	 1	 -7.100016	 7.100016;
	3	 9	 0.0308	 0.119	 0.0322	 175.0	 208.0	 220.0	 0.0	 0.0	 1	 -7.100016	 7.100016;
	3	 24	 0.0023	 0.0839	 0.0	 400.0	 510.0	 600.0	 1.03	 0.0	 1	 -7.100016	 7.100016;
	4	 9	 0.0268	 0.1037	 0.0281	 175.0	 208.0	 220.0	 0.0	 0.0	 1	 -7.100016	 7.100016;
	5	 10	 0.0228	 0.0883	 0.0239	 175.0	 208.0	 220.0	 0.0	 0.0	 1	 -7.100016	 7.100016;
	6	 10	 0.0139	 0.0605	 2.459	 175.0	 193.0	 200.0	 0.0	 0.0	 1	 -7.100016	 7.100016;
	7	 8	 0.0159	 0.0614	 0.0166	 175.0	 208.0	 220.0	 0.0	 0.0	 1	 -7.100016	 7.100016;
	8	 9	 0.0427	 0.1651	 0.0447	 175.0	 208.0	 220.0	 0.0	 0.0	 1	 -7.100016	 7.100016;
	8	 10	 0.0427	 0.1651	 0.0447	 175.0	 208.0	 220.0	 0.0	 0.0	 1	 -7.100016	 7.100016;
	9	 11	 0.0023	 0.0839	 0.0	 400.0	 510.0	 600.0	 1.03	 0.0	 1	 -7.100016	 7.100016;
	9	 12	 0.0023	 0.0839	 0.0	 400.0	 510.0	 600.0	 1.03	 0.0	 1	 -7.100016	 7.100016;
	10	 11	 0.0023	 0.0839	 0.0	 400.0	 510.0	 600.0	 1.02	 0.0	 1	 -7.100016	 7.100016;
	10	 12	 0.0023	 0.0839	 0.0	 400.0	 510.0	 600.0	 1.02	 0.0	 1	 -7.100016	 7.100016;
	11	 13	 0.0061	 0.0476	 0.0999	 500.0	 600.0	 625.0	 0.0	 0.0	 1	 -7.100016	 7.100016;
	11	 14	 0.0054	 0.0418	 0.0879	 500.0	 600.0	 625.0	 0.0	 0.0	 1	 -7.100016	 7.100016;
	12	 13	 0.0061	 0.0476	 0.0999	 500.0	 600.0	 625.0	 0.0	 0.0	 1	 -7.100016	 7.100016;
	12	 23	 0.0124	 0.0966	 0.203	 500.0	 600.0	 625.0	 0.0	 0.0	 1	 -7.100016	 7.100016;
	13	 23	 0.0111	 0.0865	 0.1818	 500.0	 600.0	 625.0	 0.0	 0.0	 1	 -7.100016	 7.100016;
	14	 16	 0.005	 0.0389	 0.0818	 500.0	 600.0	 625.0	 0.0	 0.0	 1	 -7.100016	 7.100016;
	15	 16	 0.0022	 0.0173	 0.0364	 500.0	 600.0	 625.0	 0.0	 0.0	 1	 -7.100016	 7.100016;
	15	 21	 0.0063	 0.049	 0.103	 500.0	 600.0	 625.0	 0.0	 0.0	 1	 -7.100016	 7.100016;
	15	 21	 0.0063	 0.049	 0.103	 500.0	 600.0	 625.0	 0.0	 0.0	 1	 -7.100016	 7.100016;
	15	 24	 0.0067	 0.0519	 0.1091	 500.0	 600.0	 625.0	 0.0	 0.0	 1	 -7.100016	 7.100016;
	16	 17	 0.0033	 0.0259	 0.0545	 500.0	 600.0	 625.0	 0.0	 0.0	 1	 -7.100016	 7.100016;
	16	 19	 0.003	 0.0231	 0.0485	 500.0	 600.0	 625.0	 0.0	 0.0	 1	 -7.100016	 7.100016;
	17	 18	 0.0018	 0.0144	 0.0303	 500.0	 600.0	 625.0	 0.0	 0.0	 1	 -7.100016	 7.100016;
	17	 22	 0.0135	 0.1053	 0.2212	 500.0	 600.0	 625.0	 0.0	 0.0	 1	 -7.100016	 7.100016;
	18	 21	 0.0033	 0.0259	 0.0545	 500.0	 600.0	 625.0	 0.0	 0.0	 1	 -7.100016	 7.100016;
	18	 21	 0.0033	 0.0259	 0.0545	 500.0	 600.0	 625.0	 0.0	 0.0	 1	 -7.100016	 7.100016;
	19	 20	 0.0051	 0.0396	 0.0833	 500.0	 600.0	 625.0	 0.0	 0.0	 1	 -7.100016	 7.100016;
	19	 20	 0.0051	 0.0396	 0.0833	 500.0	 600.0	 625.0	 0.0	 0.0	 1	 -7.100016	 7.100016;
	20	 23	 0.0028	 0.0216	 0.0455	 500.0	 600.0	 625.0	 0.0	 0.0	 1	 -7.100016	 7.100016;
	20	 23	 0.0028	 0.0216	 0.0455	 500.0	 600.0	 625.0	 0.0	 0.0	 1	 -7.100016	 7.100016;
	21	 22	 0.0087	 0.0678	 0.1424	 500.0	 600.0	 625.0	 0.0	 0.0	 1	 -7.100016	 7.100016;
];

% INFO    : === Translation Options ===
% INFO    : Phase Angle Bound:           7.100016 (deg.)
% INFO    : AC OPF Solution File:        ./nesta_case24_ieee_rts__sad.dat.opf.sol
% INFO    : 
% INFO    : === Voltage Setpoint Replacement Notes ===
% INFO    : Bus 1	: V=1.04723, theta=-6.75546 -> V=1.03116, theta=-7.74931
% INFO    : Bus 2	: V=1.04721, theta=-6.83109 -> V=1.02794, theta=-7.72341
% INFO    : Bus 3	: V=1.01378, theta=-6.18749 -> V=1.01395, theta=-9.95875
% INFO    : Bus 4	: V=1.01625, theta=-9.57435 -> V=1.00903, theta=-10.81131
% INFO    : Bus 5	: V=1.03543, theta=-9.73753 -> V=1.02711, theta=-10.74273
% INFO    : Bus 6	: V=1.03241, theta=-12.31057 -> V=1.0276, theta=-13.28597
% INFO    : Bus 7	: V=1.03601, theta=-9.87659 -> V=1.02956, theta=-3.59164
% INFO    : Bus 8	: V=1.00896, theta=-12.55316 -> V=1.00427, theta=-9.50027
% INFO    : Bus 9	: V=1.02393, theta=-7.81824 -> V=1.02698, theta=-9.27195
% INFO    : Bus 10	: V=1.05, theta=-9.67835 -> V=1.05, theta=-10.62235
% INFO    : Bus 11	: V=1.02263, theta=-2.61309 -> V=1.03273, theta=-4.64818
% INFO    : Bus 12	: V=1.01727, theta=-1.87609 -> V=1.02695, theta=-3.52232
% INFO    : Bus 13	: V=1.03348, theta=-0.0 -> V=1.05, theta=0.0
% INFO    : Bus 14	: V=1.03987, theta=1.01242 -> V=1.05, theta=-3.71689
% INFO    : Bus 15	: V=1.04106, theta=9.32437 -> V=1.04479, theta=1.17525
% INFO    : Bus 16	: V=1.04428, theta=8.54257 -> V=1.04951, theta=1.27626
% INFO    : Bus 17	: V=1.04756, theta=12.89161 -> V=1.04984, theta=4.77096
% INFO    : Bus 18	: V=1.05, theta=14.24705 -> V=1.05, theta=5.75937
% INFO    : Bus 19	: V=1.03895, theta=7.49314 -> V=1.04185, theta=0.70319
% INFO    : Bus 20	: V=1.04397, theta=8.45227 -> V=1.04489, theta=2.0619
% INFO    : Bus 21	: V=1.05, theta=15.02295 -> V=1.05, theta=6.19253
% INFO    : Bus 22	: V=1.05, theta=20.69117 -> V=1.05, theta=11.871
% INFO    : Bus 23	: V=1.05, theta=9.68379 -> V=1.05, theta=3.51051
% INFO    : Bus 24	: V=1.00585, theta=3.6683 -> V=1.01424, theta=-2.85872
% INFO    : 
% INFO    : === Generator Setpoint Replacement Notes ===
% INFO    : Gen at bus 1	: Pg=16.0, Qg=4.862 -> Pg=20.0, Qg=4.934
% INFO    : Gen at bus 1	: Vg=1.04723 -> Vg=1.03116
% INFO    : Gen at bus 1	: Pg=16.0, Qg=4.862 -> Pg=20.0, Qg=4.934
% INFO    : Gen at bus 1	: Vg=1.04723 -> Vg=1.03116
% INFO    : Gen at bus 1	: Pg=76.0, Qg=-1.576 -> Pg=76.0, Qg=0.571
% INFO    : Gen at bus 1	: Vg=1.04723 -> Vg=1.03116
% INFO    : Gen at bus 1	: Pg=76.0, Qg=-1.576 -> Pg=76.0, Qg=0.571
% INFO    : Gen at bus 1	: Vg=1.04723 -> Vg=1.03116
% INFO    : Gen at bus 2	: Pg=16.0, Qg=4.814 -> Pg=20.0, Qg=2.222
% INFO    : Gen at bus 2	: Vg=1.04721 -> Vg=1.02794
% INFO    : Gen at bus 2	: Pg=16.0, Qg=4.814 -> Pg=20.0, Qg=2.222
% INFO    : Gen at bus 2	: Vg=1.04721 -> Vg=1.02794
% INFO    : Gen at bus 2	: Pg=76.0, Qg=-2.923 -> Pg=76.0, Qg=-21.307
% INFO    : Gen at bus 2	: Vg=1.04721 -> Vg=1.02794
% INFO    : Gen at bus 2	: Pg=76.0, Qg=-2.923 -> Pg=76.0, Qg=-21.307
% INFO    : Gen at bus 2	: Vg=1.04721 -> Vg=1.02794
% INFO    : Gen at bus 7	: Pg=70.343, Qg=16.438 -> Pg=99.974, Qg=10.062
% INFO    : Gen at bus 7	: Vg=1.03601 -> Vg=1.02956
% INFO    : Gen at bus 7	: Pg=70.343, Qg=16.438 -> Pg=99.974, Qg=10.062
% INFO    : Gen at bus 7	: Vg=1.03601 -> Vg=1.02956
% INFO    : Gen at bus 7	: Pg=70.343, Qg=16.438 -> Pg=99.974, Qg=10.062
% INFO    : Gen at bus 7	: Vg=1.03601 -> Vg=1.02956
% INFO    : Gen at bus 13	: Pg=78.579, Qg=32.592 -> Pg=173.258, Qg=34.475
% INFO    : Gen at bus 13	: Vg=1.03348 -> Vg=1.05
% INFO    : Gen at bus 13	: Pg=78.579, Qg=32.592 -> Pg=173.258, Qg=34.475
% INFO    : Gen at bus 13	: Vg=1.03348 -> Vg=1.05
% INFO    : Gen at bus 13	: Pg=78.579, Qg=32.592 -> Pg=173.258, Qg=34.475
% INFO    : Gen at bus 13	: Vg=1.03348 -> Vg=1.05
% INFO    : Gen at bus 14	: Pg=0.0, Qg=114.908 -> Pg=0.0, Qg=110.354
% INFO    : Gen at bus 14	: Vg=1.03987 -> Vg=1.05
% INFO    : Gen at bus 15	: Pg=2.4, Qg=6.0 -> Pg=2.4, Qg=6.0
% INFO    : Gen at bus 15	: Vg=1.04106 -> Vg=1.04479
% INFO    : Gen at bus 15	: Pg=2.4, Qg=6.0 -> Pg=2.4, Qg=6.0
% INFO    : Gen at bus 15	: Vg=1.04106 -> Vg=1.04479
% INFO    : Gen at bus 15	: Pg=2.4, Qg=6.0 -> Pg=2.4, Qg=6.0
% INFO    : Gen at bus 15	: Vg=1.04106 -> Vg=1.04479
% INFO    : Gen at bus 15	: Pg=2.4, Qg=6.0 -> Pg=2.4, Qg=6.0
% INFO    : Gen at bus 15	: Vg=1.04106 -> Vg=1.04479
% INFO    : Gen at bus 15	: Pg=2.4, Qg=6.0 -> Pg=2.4, Qg=6.0
% INFO    : Gen at bus 15	: Vg=1.04106 -> Vg=1.04479
% INFO    : Gen at bus 15	: Pg=155.0, Qg=80.0 -> Pg=54.3, Qg=80.0
% INFO    : Gen at bus 15	: Vg=1.04106 -> Vg=1.04479
% INFO    : Gen at bus 16	: Pg=155.0, Qg=80.0 -> Pg=155.0, Qg=80.0
% INFO    : Gen at bus 16	: Vg=1.04428 -> Vg=1.04951
% INFO    : Gen at bus 18	: Pg=400.0, Qg=72.898 -> Pg=400.0, Qg=54.665
% INFO    : Gen at bus 18	: Vg=1.05 -> Vg=1.05
% INFO    : Gen at bus 21	: Pg=400.0, Qg=-7.458 -> Pg=296.31, Qg=-15.579
% INFO    : Gen at bus 21	: Vg=1.05 -> Vg=1.05
% INFO    : Gen at bus 22	: Pg=50.0, Qg=-6.413 -> Pg=47.938, Qg=-6.795
% INFO    : Gen at bus 22	: Vg=1.05 -> Vg=1.05
% INFO    : Gen at bus 22	: Pg=50.0, Qg=-6.413 -> Pg=47.938, Qg=-6.795
% INFO    : Gen at bus 22	: Vg=1.05 -> Vg=1.05
% INFO    : Gen at bus 22	: Pg=50.0, Qg=-6.413 -> Pg=47.938, Qg=-6.795
% INFO    : Gen at bus 22	: Vg=1.05 -> Vg=1.05
% INFO    : Gen at bus 22	: Pg=50.0, Qg=-6.413 -> Pg=47.938, Qg=-6.795
% INFO    : Gen at bus 22	: Vg=1.05 -> Vg=1.05
% INFO    : Gen at bus 22	: Pg=50.0, Qg=-6.413 -> Pg=47.938, Qg=-6.795
% INFO    : Gen at bus 22	: Vg=1.05 -> Vg=1.05
% INFO    : Gen at bus 22	: Pg=50.0, Qg=-6.413 -> Pg=47.938, Qg=-6.795
% INFO    : Gen at bus 22	: Vg=1.05 -> Vg=1.05
% INFO    : Gen at bus 23	: Pg=155.0, Qg=2.548 -> Pg=113.399, Qg=-9.984
% INFO    : Gen at bus 23	: Vg=1.05 -> Vg=1.05
% INFO    : Gen at bus 23	: Pg=155.0, Qg=2.548 -> Pg=113.399, Qg=-9.984
% INFO    : Gen at bus 23	: Vg=1.05 -> Vg=1.05
% INFO    : Gen at bus 23	: Pg=350.0, Qg=40.548 -> Pg=248.289, Qg=21.208
% INFO    : Gen at bus 23	: Vg=1.05 -> Vg=1.05
% INFO    : 
% INFO    : === Writing Matpower Case File Notes ===
